336
Energy = -11413.16735378
B     8.1287060    2.2042543    1.0730728 
N     7.6360252    3.5965259    1.0897056 
B     5.9305556    5.9674269    1.0728040 
N     4.8105275    6.9295972    1.0898954 
B     2.1529067    8.1407793    1.0728687 
N     0.7019533    8.4152676    1.0897830 
B    -2.2042520    8.1286956    1.0730736 
N    -3.5965239    7.6360156    1.0897063 
B    -5.9674272    5.9305492    1.0728043 
N    -6.9295995    4.8105229    1.0898954 
B    -8.1407864    2.1529043    1.0728682 
N    -8.4152767    0.7019512    1.0897823 
B    -8.1287060   -2.2042543    1.0730728 
N    -7.6360252   -3.5965259    1.0897056 
B    -5.9305556   -5.9674269    1.0728040 
N    -4.8105275   -6.9295972    1.0898954 
B    -2.1529067   -8.1407793    1.0728687 
N    -0.7019533   -8.4152676    1.0897830 
B     2.2042520   -8.1286956    1.0730736 
N     3.5965239   -7.6360156    1.0897063 
B     5.9674272   -5.9305492    1.0728043 
N     6.9295995   -4.8105229    1.0898954 
B     8.1407864   -2.1529043    1.0728682 
N     8.4152767   -0.7019512    1.0897823 
B     7.2038461    4.2078040    2.3503876 
N     6.3713049    5.3998635    2.3454058 
B     4.1317464    7.2446139    2.3505630 
N     2.8170082    7.8663932    2.3455407 
B    -0.0435998    8.3481101    2.3504008 
N    -1.4925080    8.2258443    2.3455960 
B    -4.2078024    7.2038368    2.3503882 
N    -5.3998631    6.3712973    2.3454062 
B    -7.2446177    4.1317422    2.3505629 
N    -7.8663995    2.8170053    2.3455402 
B    -8.3481202   -0.0436021    2.3504001 
N    -8.2258550   -1.4925103    2.3455952 
B    -7.2038461   -4.2078040    2.3503876 
N    -6.3713049   -5.3998635    2.3454058 
B    -4.1317464   -7.2446139    2.3505630 
N    -2.8170082   -7.8663932    2.3455407 
B     0.0435998   -8.3481101    2.3504008 
N     1.4925080   -8.2258443    2.3455960 
B     4.2078024   -7.2038368    2.3503882 
N     5.3998631   -6.3712973    2.3454062 
B     7.2446177   -4.1317422    2.3505629 
N     7.8663995   -2.8170053    2.3455402 
B     8.3481202    0.0436021    2.3504001 
N     8.2258550    1.4925103    2.3455952 
B     5.8519498    5.9056070    3.6110075 
N     4.7513908    6.8528082    3.6089508 
B     2.1149686    8.0468881    3.6111257 
N     0.6888332    8.3203278    3.6089712 
B    -2.1901278    8.0290306    3.6111436 
N    -3.5604843    7.5478384    3.6088806 
B    -5.9056075    5.8519429    3.6110078 
N    -6.8528109    4.7513858    3.6089507 
B    -8.0468958    2.1149659    3.6111252 
N    -8.3203374    0.6888308    3.6089705 
B    -8.0290416   -2.1901301    3.6111428 
N    -7.5478486   -3.5604863    3.6088800 
B    -5.8519498   -5.9056070    3.6110075 
N    -4.7513908   -6.8528082    3.6089508 
B    -2.1149686   -8.0468881    3.6111257 
N    -0.6888332   -8.3203278    3.6089711 
B     2.1901278   -8.0290306    3.6111436 
N     3.5604843   -7.5478384    3.6088806 
B     5.9056075   -5.8519429    3.6110078 
N     6.8528109   -4.7513858    3.6089507 
B     8.0468958   -2.1149659    3.6111252 
N     8.3203374   -0.6888308    3.6089705 
B     8.0290416    2.1901301    3.6111428 
N     7.5478486    3.5604863    3.6088800 
B     4.1264162    7.2227613    4.8712584 
N     2.8176453    7.8575025    4.8716584 
B    -0.0376391    8.3275249    4.8712428 
N    -1.4878404    8.2194275    4.8716009 
B    -4.1921348    7.1889631    4.8711571 
N    -5.3920364    6.3675658    4.8715126 
B    -7.2227653    4.1264119    4.8712582 
N    -7.8575092    2.8176421    4.8716580 
B    -8.3275356   -0.0376415    4.8712421 
N    -8.2194389   -1.4878428    4.8716002 
B    -7.1889730   -4.1921365    4.8711566 
N    -6.3675738   -5.3920368    4.8715123 
B    -4.1264162   -7.2227613    4.8712584 
N    -2.8176453   -7.8575025    4.8716584 
B     0.0376391   -8.3275249    4.8712428 
N     1.4878403   -8.2194274    4.8716009 
B     4.1921348   -7.1889631    4.8711571 
N     5.3920364   -6.3675658    4.8715126 
B     7.2227653   -4.1264119    4.8712582 
N     7.8575092   -2.8176421    4.8716580 
B     8.3275356    0.0376415    4.8712421 
N     8.2194389    1.4878428    4.8716002 
B     7.1889730    4.1921365    4.8711566 
N     6.3675738    5.3920368    4.8715123 
B     2.1180711    8.0553297    6.1334688 
N     0.6900541    8.3309597    6.1325999 
B    -2.1918478    8.0385285    6.1333813 
N    -3.5647603    7.5577931    6.1324722 
B    -5.9112308    5.8587881    6.1333485 
N    -6.8610945    4.7576517    6.1325717 
B    -8.0553379    2.1180683    6.1334683 
N    -8.3309700    0.6900517    6.1325993 
B    -8.0385402   -2.1918503    6.1333806 
N    -7.5578041   -3.5647625    6.1324716 
B    -5.8587954   -5.9112303    6.1333483 
N    -4.7576570   -6.8610916    6.1325717 
B    -2.1180711   -8.0553297    6.1334688 
N    -0.6900541   -8.3309597    6.1325999 
B     2.1918478   -8.0385285    6.1333813 
N     3.5647603   -7.5577931    6.1324722 
B     5.9112308   -5.8587881    6.1333485 
N     6.8610945   -4.7576517    6.1325717 
B     8.0553379   -2.1180683    6.1334683 
N     8.3309700   -0.6900517    6.1325993 
B     8.0385402    2.1918503    6.1333806 
N     7.5578041    3.5647625    6.1324716 
B     5.8587954    5.9112303    6.1333483 
N     4.7576570    6.8610916    6.1325717 
B    -0.0380906    8.3332170    7.3938867 
N    -1.4885755    8.2262142    7.3946724 
B    -4.1952652    7.1936488    7.3937551 
N    -5.3957446    6.3728062    7.3946215 
B    -7.2276857    4.1288142    7.3938761 
N    -7.8633722    2.8202985    7.3947817 
B    -8.3332285   -0.0380930    7.3938860 
N    -8.2262264   -1.4885781    7.3946717 
B    -7.1936593   -4.1952670    7.3937545 
N    -6.3728147   -5.3957451    7.3946211 
B    -4.1288189   -7.2276813    7.3938763 
N    -2.8203018   -7.8633650    7.3947821 
B     0.0380906   -8.3332170    7.3938867 
N     1.4885755   -8.2262142    7.3946724 
B     4.1952652   -7.1936488    7.3937551 
N     5.3957446   -6.3728062    7.3946215 
B     7.2276857   -4.1288142    7.3938761 
N     7.8633722   -2.8202985    7.3947817 
B     8.3332285    0.0380930    7.3938860 
N     8.2262264    1.4885781    7.3946717 
B     7.1936593    4.1952670    7.3937545 
N     6.3728147    5.3957451    7.3946211 
B     4.1288188    7.2276813    7.3938763 
N     2.8203018    7.8633650    7.3947821 
B    -2.1901376    8.0334028    8.6559526 
N    -3.5625629    7.5518163    8.6555825 
B    -5.9071871    5.8553020    8.6559589 
N    -6.8560548    4.7535098    8.6556829 
B    -8.0498487    2.1169630    8.6561485 
N    -8.3244935    0.6889199    8.6557487 
B    -8.0334154   -2.1901402    8.6559519 
N    -7.5518279   -3.5625652    8.6555819 
B    -5.8553098   -5.9071865    8.6559587 
N    -4.7535154   -6.8560517    8.6556829 
B    -2.1169661   -8.0498399    8.6561489 
N    -0.6889225   -8.3244824    8.6557493 
B     2.1901376   -8.0334028    8.6559526 
N     3.5625629   -7.5518163    8.6555825 
B     5.9071871   -5.8553020    8.6559589 
N     6.8560548   -4.7535098    8.6556829 
B     8.0498487   -2.1169630    8.6561485 
N     8.3244935   -0.6889199    8.6557487 
B     8.0334154    2.1901402    8.6559519 
N     7.5518279    3.5625652    8.6555819 
B     5.8553098    5.9071865    8.6559587 
N     4.7535154    6.8560517    8.6556829 
B     2.1169661    8.0498399    8.6561489 
N     0.6889225    8.3244824    8.6557493 
B    -4.1916399    7.1855339    9.9160300 
N    -5.3896272    6.3650148    9.9181743 
B    -7.2201739    4.1234835    9.9161981 
N    -7.8534711    2.8163086    9.9184148 
B    -8.3237222   -0.0390164    9.9162134 
N    -8.2156595   -1.4871451    9.9182071 
B    -7.1855451   -4.1916418    9.9160295 
N    -6.3650239   -5.3896277    9.9181740 
B    -4.1234885   -7.2201691    9.9161982 
N    -2.8163122   -7.8534634    9.9184151 
B     0.0390138   -8.3237100    9.9162140 
N     1.4871423   -8.2156465    9.9182078 
B     4.1916399   -7.1855339    9.9160300 
N     5.3896272   -6.3650148    9.9181743 
B     7.2201739   -4.1234835    9.9161981 
N     7.8534711   -2.8163086    9.9184148 
B     8.3237222    0.0390164    9.9162134 
N     8.2156595    1.4871451    9.9182071 
B     7.1855451    4.1916418    9.9160295 
N     6.3650239    5.3896277    9.9181740 
B     4.1234885    7.2201691    9.9161982 
N     2.8163121    7.8534634    9.9184151 
B    -0.0390138    8.3237100    9.9162140 
N    -1.4871423    8.2156465    9.9182078 
B    -5.9265379    5.8660779   11.1766783 
N    -6.8643578    4.7550241   11.1817742 
B    -8.0711440    2.1163834   11.1769595 
N    -8.3312972    0.6857740   11.1819045 
B    -8.0517404   -2.2015495   11.1765739 
N    -7.5570953   -3.5690865   11.1816139 
B    -5.8660863   -5.9265372   11.1766781 
N    -4.7550302   -6.8643544   11.1817742 
B    -2.1163866   -8.0711345   11.1769599 
N    -0.6857768   -8.3312853   11.1819050 
B     2.2015467   -8.0517269   11.1765745 
N     3.5690841   -7.5570828   11.1816145 
B     5.9265379   -5.8660779   11.1766783 
N     6.8643578   -4.7550241   11.1817742 
B     8.0711440   -2.1163834   11.1769595 
N     8.3312972   -0.6857740   11.1819045 
B     8.0517404    2.2015495   11.1765739 
N     7.5570953    3.5690865   11.1816139 
B     5.8660863    5.9265372   11.1766781 
N     4.7550302    6.8643544   11.1817742 
B     2.1163866    8.0711345   11.1769599 
N     0.6857768    8.3312853   11.1819050 
B    -2.2015467    8.0517269   11.1765745 
N    -3.5690841    7.5570828   11.1816145 
B    -7.3001788    4.1839101   12.4543921 
N    -7.9412145    2.8534927   12.4376493 
B    -8.4215929   -0.0269872   12.4545945 
N    -8.3099004   -1.4992988   12.4373635 
B    -7.2780261   -4.2311563   12.4541589 
N    -6.4414010   -5.4476979   12.4372990 
B    -4.1839152   -7.3001738   12.4543923 
N    -2.8534963   -7.9412063   12.4376497 
B     0.0269844   -8.4215797   12.4545951 
N     1.4992960   -8.3098861   12.4373642 
B     4.2311542   -7.2780142   12.4541594 
N     5.4476973   -6.4413912   12.4372994 
B     7.3001788   -4.1839101   12.4543921 
N     7.9412145   -2.8534927   12.4376493 
B     8.4215929    0.0269872   12.4545945 
N     8.3099004    1.4992988   12.4373635 
B     7.2780261    4.2311563   12.4541589 
N     6.4414010    5.4476979   12.4372990 
B     4.1839152    7.3001738   12.4543923 
N     2.8534963    7.9412063   12.4376497 
B    -0.0269844    8.4215797   12.4545951 
N    -1.4992960    8.3098861   12.4373642 
B    -4.2311542    7.2780142   12.4541594 
N    -5.4476973    6.4413912   12.4372994 
C    -2.1843925   -8.2475084   13.6342814 
H    -2.8187606   -8.2395390   14.5329450 
C    -0.8429005   -8.5068045   13.7242262 
H    -0.4608094   -8.7047190   14.7359558 
C     2.2324395   -8.2400597   13.6336495 
H     1.6804203   -8.5530761   14.5323388 
C     3.5228830   -7.7909547   13.7236792 
H     3.9531309   -7.7724722   14.7354478 
C     6.0467372   -6.0138901   13.6338809 
H     5.7232143   -6.5598300   14.5324476 
C     6.9404696   -4.9805898   13.7237963 
H     7.3027130   -4.7486364   14.7357106 
C     8.2475186   -2.1843894   13.6342808 
H     8.2395483   -2.8187574   14.5329444 
C     8.5068172   -0.8428979   13.7242254 
H     8.7047334   -0.4608072   14.7359549 
C     8.2400744    2.2324427   13.6336486 
H     8.5530922    1.6804241   14.5323378 
C     7.7909683    3.5228858   13.7236783 
H     7.7724862    3.9531339   14.7354470 
C     6.0138989    6.0467369   13.6338806 
H     6.5598401    5.7232158   14.5324470 
C     4.9805961    6.9404664   13.7237962 
H     4.7486417    7.3027089   14.7357107 
C     2.1843925    8.2475084   13.6342814 
H     2.8187606    8.2395389   14.5329450 
C     0.8429005    8.5068045   13.7242262 
H     0.4608094    8.7047190   14.7359558 
C    -2.2324395    8.2400597   13.6336495 
H    -1.6804203    8.5530761   14.5323388 
C    -3.5228830    7.7909547   13.7236792 
H    -3.9531309    7.7724722   14.7354478 
C    -6.0467372    6.0138901   13.6338809 
H    -5.7232143    6.5598300   14.5324476 
C    -6.9404696    4.9805898   13.7237963 
H    -7.3027130    4.7486364   14.7357106 
C    -8.2475186    2.1843894   13.6342808 
H    -8.2395483    2.8187574   14.5329444 
C    -8.5068172    0.8428979   13.7242254 
H    -8.7047334    0.4608072   14.7359549 
C    -8.2400744   -2.2324427   13.6336486 
H    -8.5530922   -1.6804241   14.5323378 
C    -7.7909683   -3.5228858   13.7236784 
H    -7.7724862   -3.9531339   14.7354470 
C    -6.0138989   -6.0467369   13.6338806 
H    -6.5598401   -5.7232158   14.5324470 
C    -4.9805961   -6.9404664   13.7237962 
H    -4.7486417   -7.3027089   14.7357107 
C     0.0242241   -8.5393405   -0.1063856 
H    -0.5899260   -8.6986059   -1.0051712 
C     1.3869925   -8.4410346   -0.1960542 
H     1.8081211   -8.5356020   -1.2072359 
C     4.2846708   -7.3760201   -0.1069946 
H     3.8313380   -7.8201267   -1.0056171 
C     5.4139567   -6.6069616   -0.1970270 
H     5.8223799   -6.4751522   -1.2093555 
C     7.4009317   -4.2444662   -0.1061912 
H     7.2303985   -4.8558027   -1.0047462 
C     7.9999606   -3.0164097   -0.1961608 
H     8.2926167   -2.7002649   -1.2077369 
C     8.5393503    0.0242262   -0.1063863 
H     8.6986157   -0.5899239   -1.0051718 
C     8.4410449    1.3869947   -0.1960549 
H     8.5356128    1.8081232   -1.2072365 
C     7.3760290    4.2846727   -0.1069951 
H     7.8201365    3.8313409   -1.0056176 
C     6.6069689    5.4139576   -0.1970273 
H     6.4751589    5.8223807   -1.2093558 
C     4.2444698    7.4009284   -0.1061911 
H     4.8558066    7.2303966   -1.0047462 
C     3.0164122    7.9999550   -0.1961604 
H     2.7002665    8.2926104   -1.2077365 
C    -0.0242241    8.5393406   -0.1063856 
H     0.5899260    8.6986059   -1.0051712 
C    -1.3869925    8.4410346   -0.1960542 
H    -1.8081211    8.5356020   -1.2072359 
C    -4.2846708    7.3760201   -0.1069946 
H    -3.8313380    7.8201267   -1.0056171 
C    -5.4139567    6.6069616   -0.1970270 
H    -5.8223799    6.4751523   -1.2093555 
C    -7.4009317    4.2444662   -0.1061912 
H    -7.2303985    4.8558027   -1.0047462 
C    -7.9999606    3.0164097   -0.1961608 
H    -8.2926167    2.7002649   -1.2077369 
C    -8.5393503   -0.0242262   -0.1063863 
H    -8.6986157    0.5899239   -1.0051718 
C    -8.4410449   -1.3869947   -0.1960549 
H    -8.5356128   -1.8081232   -1.2072365 
C    -7.3760290   -4.2846727   -0.1069951 
H    -7.8201365   -3.8313409   -1.0056176 
C    -6.6069689   -5.4139576   -0.1970273 
H    -6.4751589   -5.8223807   -1.2093558 
C    -4.2444698   -7.4009284   -0.1061911 
H    -4.8558066   -7.2303966   -1.0047462 
C    -3.0164122   -7.9999550   -0.1961604 
H    -2.7002665   -8.2926104   -1.2077365 
