112
Energy = -3803.911648006
B     1.9439741    1.9885846    1.0631536 
N     0.7126631    2.7863057    1.0786774 
B    -1.9885961    1.9439887    1.0631775 
N    -2.7862817    0.7126585    1.0786822 
B    -1.9439798   -1.9886020    1.0631592 
N    -0.7126527   -2.7862946    1.0786559 
B     1.9885995   -1.9439867    1.0631498 
N     2.7863015   -0.7126652    1.0786551 
B    -0.0380430    2.7622360    2.3412037 
N    -1.4534375    2.4272217    2.3407745 
B    -2.7622247   -0.0380705    2.3411930 
N    -2.4272173   -1.4534664    2.3407616 
B     0.0380732   -2.7622602    2.3411707 
N     1.4534662   -2.4272444    2.3407458 
B     2.7622606    0.0380475    2.3411762 
N     2.4272442    1.4534393    2.3407385 
B    -1.9817652    1.9259609    3.6086129 
N    -2.7662219    0.7001813    3.6057955 
B    -1.9259614   -1.9818187    3.6085902 
N    -0.7001799   -2.7662724    3.6057738 
B     1.9818095   -1.9260021    3.6085873 
N     2.7662665   -0.7002204    3.6057728 
B     1.9260221    1.9817711    3.6085857 
N     0.7002398    2.7662224    3.6057874 
B    -2.7721236   -0.0381179    4.8685889 
N    -2.4546625   -1.4627273    4.8698320 
B     0.0381093   -2.7721774    4.8685773 
N     1.4627143   -2.4546979    4.8698359 
B     2.7721833    0.0380581    4.8685814 
N     2.4547304    1.4626696    4.8698209 
B    -0.0380424    2.7721224    4.8685921 
N    -1.4626488    2.4546543    4.8698495 
B    -1.9348617   -1.9876086    6.1326815 
N    -0.7016031   -2.7691076    6.1315708 
B     1.9875774   -1.9348983    6.1327020 
N     2.7690957   -0.7016488    6.1315805 
B     1.9349405    1.9875430    6.1326784 
N     0.7016847    2.7690454    6.1315738 
B    -1.9875145    1.9348419    6.1327051 
N    -2.7690330    0.7015934    6.1315823 
B     0.0376083   -2.7728530    7.3946590 
N     1.4625371   -2.4547607    7.3958144 
B     2.7728560    0.0375687    7.3946635 
N     2.4548160    1.4625139    7.3957847 
B    -0.0375346    2.7727994    7.3946546 
N    -1.4624636    2.4547125    7.3958054 
B    -2.7727912   -0.0376352    7.3946555 
N    -2.4547472   -1.4625795    7.3957836 
B     1.9876277   -1.9339850    8.6587525 
N     2.7693896   -0.7013656    8.6574881 
B     1.9340433    1.9876518    8.6586954 
N     0.7014173    2.7693846    8.6574596 
B    -1.9875717    1.9339355    8.6587314 
N    -2.7693345    0.7013178    8.6574663 
B    -1.9339799   -1.9877085    8.6586998 
N    -0.7013476   -2.7694325    8.6574645 
B     2.7624766    0.0399592    9.9186629 
N     2.4515500    1.4616343    9.9215529 
B    -0.0399004    2.7624614    9.9186384 
N    -1.4615247    2.4514331    9.9215645 
B    -2.7624338   -0.0400043    9.9186397 
N    -2.4515083   -1.4616789    9.9215436 
B     0.0399489   -2.7624935    9.9186579 
N     1.4615744   -2.4514635    9.9215950 
B     1.9267436    1.9806439   11.1861178 
N     0.6882796    2.7435558   11.1864689 
B    -1.9804663    1.9266521   11.1861466 
N    -2.7434707    0.6882217   11.1864758 
B    -1.9267185   -1.9806598   11.1861263 
N    -0.6882558   -2.7435749   11.1864773 
B     1.9804880   -1.9266690   11.1861864 
N     2.7434881   -0.6882376   11.1865152 
B    -0.0320592    2.7805580   12.4639398 
N    -1.4670762    2.4743796   12.4485668 
B    -2.7805050   -0.0320840   12.4640046 
N    -2.4745730   -1.4672660   12.4485896 
B     0.0320571   -2.7805585   12.4639628 
N     1.4670703   -2.4743679   12.4486077 
B     2.7804869    0.0320886   12.4640322 
N     2.4745830    1.4672778   12.4485989 
C    -0.0356322    2.9012188   -0.1288740 
H     0.5471258    3.2220087   -1.0076616 
C     2.5637685    1.3542927   -0.2139220 
H     2.6262595    1.8298686   -1.2037186 
C     2.9010897    0.0355903   -0.1289296 
H     3.2217919   -0.5471940   -1.0077294 
C     1.3543038   -2.5637977   -0.2139175 
H     1.8299123   -2.6263957   -1.2036916 
C     0.0355906   -2.9010720   -0.1289325 
H    -0.5472295   -3.2216481   -1.0077543 
C    -2.5638840   -1.3543248   -0.2138735 
H    -2.6266141   -1.8299687   -1.2036228 
C    -2.9011601   -0.0356082   -0.1288837 
H    -3.2218584    0.5471825   -1.0076827 
C    -1.3543458    2.5639259   -0.2138511 
H    -1.8299962    2.6266417   -1.2035972 
C     0.8544135    2.7702899   13.7409542 
H     0.5621757    3.1501408   14.7307516 
C     2.0255737    2.0766003   13.6563130 
H     2.6638504    1.8906027   14.5354396 
C     2.7699619   -0.8543791   13.7410934 
H     3.1493525   -0.5619621   14.7310716 
C     2.0762776   -2.0255622   13.6562845 
H     1.8903959   -2.6638679   14.5353205 
C    -0.8544279   -2.7702679   13.7409702 
H    -0.5622294   -3.1501687   14.7307603 
C    -2.0255720   -2.0765548   13.6563186 
H    -2.6638038   -1.8904557   14.5354564 
C    -2.7700925    0.8544555   13.7410187 
H    -3.1496514    0.5621307   14.7309599 
C    -2.0763984    2.0256377   13.6562131 
H    -1.8906325    2.6640110   14.5352271 
